--------------------------------------------------------------------------------
 Model Input Parameters:  ROMS/TOMS version 4.0  
                          Tuesday - June 21, 2022 - 10:19:36 AM
--------------------------------------------------------------------------------

 North-Pacific-1km-Nested-Simulation

 Operating system  : Linux
 CPU/hardware      : x86_64
 Compiler system   : ifort
 Compiler command  : /home/SystemSoftware/intel2017/compilers_and_libraries_2017.1.132/linux/mpi/inte
 Compiler flags    : -fp-model precise -heap-arrays -ip -O3 -traceback -check uninit -I/home/cesm01/software/coawst/scorpio-v1.1.2/include -I/home/cesm01/software/coawst/pnetcdf1.12.1/include 
 OCN Communicator  : 1140850688,  PET size = 1200

 Input Script      : Nested1km_9km6hrForc_parallel.in

 SVN Root URL      : https://www.myroms.org/svn/src/tags/roms-4.0
 SVN Revision      : 1131

 Local Root        : /home/cesm01/roms-4.0
 Header Dir        : /home/cesm01/roms-4.0/projects/NP_1km
 Header file       : nested1km_9km6hrforc_parallel.h
 Analytical Dir    : /home/cesm01/roms-4.0/projects/NP_1km

 Resolution, Grid 01: 1998x1521x65,  Parallel Nodes: 1200,  Tiling: 40x30


 Physical Parameters, Grid: 01
 =============================

       2700  ntimes            Number of timesteps for 3-D equations.
     60.000  dt                Timestep size (s) for 3-D equations.
         30  ndtfast           Number of timesteps for 2-D equations between
                                 each 3D timestep.
          1  ERstr             Starting ensemble/perturbation run number.
          1  ERend             Ending ensemble/perturbation run number.
         -1  nrrec             Number of restart records to read from disk.
          F  LcycleRST         Switch to recycle time-records in restart file.
      14400  nRST              Number of timesteps between the writing of data
                                 into restart fields.
          1  ninfo             Number of timesteps between print of information
                                 to standard output.
          T  ldefout           Switch to create a new output NetCDF file(s).
        180  nHIS              Number of timesteps between the writing fields
                                 into history file.
        180  ndefHIS           Number of timesteps between creation of new
                                 history files.
          0  nQCK              Number of timesteps between the writing fields
                                 into quicksave file.
          1  ntsAVG            Starting timestep for the accumulation of output
                                 time-averaged data.
        180  nAVG              Number of timesteps between the writing of
                                 time-averaged data into averages file.
        180  ndefAVG           Number of timesteps between creation of new
                                 time-averaged file.
          1  ntsDIA            Starting timestep for the accumulation of output
                                 time-averaged diagnostics data.
        180  nDIA              Number of timesteps between the writing of
                                 time-averaged data into diagnostics file.
        180  ndefDIA           Number of timesteps between creation of new
                                 diagnostic file.
 0.0000E+00  nl_tnu2(01)       NLM Horizontal, harmonic mixing coefficient
                                 (m2/s) for tracer 01: temp
 0.0000E+00  nl_tnu2(02)       NLM Horizontal, harmonic mixing coefficient
                                 (m2/s) for tracer 02: salt
 8.0000E+05  nl_visc4          NLM Horizontal, biharmonic mixing coefficient
                                 (m4/s) for momentum.
          F  LuvSponge         Turning OFF sponge on horizontal momentum.
          F  LtracerSponge(01) Turning OFF sponge on tracer 01: temp
          F  LtracerSponge(02) Turning OFF sponge on tracer 02: salt
 1.0000E-06  Akt_bak(01)       Background vertical mixing coefficient (m2/s)
                                 for tracer 01: temp
 1.0000E-06  Akt_bak(02)       Background vertical mixing coefficient (m2/s)
                                 for tracer 02: salt
 1.0000E-05  Akv_bak           Background vertical mixing coefficient (m2/s)
                                 for momentum.
 3.0000E-04  rdrg              Linear bottom drag coefficient (m/s).
 3.0000E-03  rdrg2             Quadratic bottom drag coefficient.
 2.0000E-02  Zob               Bottom roughness (m).
 2.0000E+00  blk_ZQ            Height (m) of surface air humidity measurement.
 2.0000E+00  blk_ZT            Height (m) of surface air temperature measurement.
 1.0000E+01  blk_ZW            Height (m) of surface winds measurement.
          1  lmd_Jwt           Jerlov water type.
          2  Vtransform        S-coordinate transformation equation.
          4  Vstretching       S-coordinate stretching function.
 1.0000E+01  theta_s           S-coordinate surface control parameter.
 5.0000E-01  theta_b           S-coordinate bottom  control parameter.
    350.000  Tcline            S-coordinate surface/bottom layer width (m) used
                                 in vertical coordinate stretching.
   1025.000  rho0              Mean density (kg/m3) for Boussinesq approximation.
   9583.000  dstart            Time-stamp assigned to model initialization (days).
19790101.00  time_ref          Reference time for units attribute (yyyymmdd.dd)
 1.0000E+01  Tnudg(01)         Nudging/relaxation time scale (days)
                                 for tracer 01: temp
 1.0000E+01  Tnudg(02)         Nudging/relaxation time scale (days)
                                 for tracer 02: salt
 0.0000E+00  Znudg             Nudging/relaxation time scale (days)
                                 for free-surface.
 0.0000E+00  M2nudg            Nudging/relaxation time scale (days)
                                 for 2D momentum.
 1.0000E+01  M3nudg            Nudging/relaxation time scale (days)
                                 for 3D momentum.
 1.0000E+01  obcfac            Factor between passive and active
                                 open boundary conditions.
          T  VolCons(1)        NLM western  edge boundary volume conservation.
          T  VolCons(2)        NLM southern edge boundary volume conservation.
          T  VolCons(3)        NLM eastern  edge boundary volume conservation.
          T  VolCons(4)        NLM northern edge boundary volume conservation.
     14.000  T0                Background potential temperature (C) constant.
     35.000  S0                Background salinity (PSU) constant.
      1.000  gamma2            Slipperiness variable: free-slip (1.0) or 
                                                      no-slip (-1.0).
          F  LuvSrc            Turning OFF momentum point Sources/Sinks.
          F  LwSrc             Turning OFF volume influx point Sources/Sinks.
          F  LtracerSrc(01)    Turning OFF point Sources/Sinks on tracer 01: temp
          F  LtracerSrc(02)    Turning OFF point Sources/Sinks on tracer 02: salt
          F  LsshCLM           Turning OFF processing of SSH climatology.
          F  Lm2CLM            Turning OFF processing of 2D momentum climatology.
          F  Lm3CLM            Turning OFF processing of 3D momentum climatology.
          F  LtracerCLM(01)    Turning OFF processing of climatology tracer 01: temp
          F  LtracerCLM(02)    Turning OFF processing of climatology tracer 02: salt
          F  LnudgeM2CLM       Turning OFF nudging of 2D momentum climatology.
          F  LnudgeM3CLM       Turning OFF nudging of 3D momentum climatology.
          F  LnudgeTCLM(01)    Turning OFF nudging of climatology tracer 01: temp
          F  LnudgeTCLM(02)    Turning OFF nudging of climatology tracer 02: salt

          T  Hout(idFsur)      Write out free-surface.
          T  Hout(idUvel)      Write out 3D U-momentum component.
          T  Hout(idVvel)      Write out 3D V-momentum component.
          T  Hout(idWvel)      Write out W-momentum component.
          T  Hout(idTvar)      Write out tracer 01: temp
          T  Hout(idTvar)      Write out tracer 02: salt
          T  Hout(idUsms)      Write out surface U-momentum stress.
          T  Hout(idVsms)      Write out surface V-momentum stress.
          T  Hout(idUair)      Write out surface U-wind component.
          T  Hout(idVair)      Write out surface V-wind component.
          T  Hout(idTsur)      Write out surface net heat flux.
          T  Hout(idTsur)      Write out surface net salt flux.
          T  Hout(idSrad)      Write out shortwave radiation flux.
          T  Hout(idLrad)      Write out longwave radiation flux.
          T  Hout(idLhea)      Write out latent heat flux.
          T  Hout(idShea)      Write out sensible heat flux.
          T  Hout(idEmPf)      Write out E-P flux.
          T  Hout(idDano)      Write out density anomaly.
          T  Hout(idVvis)      Write out vertical viscosity: AKv.
          T  Hout(idTdif)      Write out vertical diffusion: AKt(itemp).
          T  Hout(idSdif)      Write out vertical diffusion: AKt(isalt).
          T  Hout(idHsbl)      Write out depth of surface boundary layer.

          T  Aout(idFsur)      Write out averaged free-surface.
          T  Aout(idUvel)      Write out averaged 3D U-momentum component.
          T  Aout(idVvel)      Write out averaged 3D V-momentum component.
          T  Aout(idWvel)      Write out averaged W-momentum component.
          T  Aout(idTvar)      Write out averaged tracer 01: temp
          T  Aout(idTvar)      Write out averaged tracer 02: salt
          T  Aout(idUsms)      Write out averaged surface U-momentum stress.
          T  Aout(idVsms)      Write out averaged surface V-momentum stress.
          T  Aout(idTsur)      Write out averaged surface net heat flux.
          T  Aout(idTsur)      Write out averaged surface net salt flux.
          T  Aout(idSrad)      Write out averaged shortwave radiation flux.
          T  Aout(idLrad)      Write out averaged longwave radiation flux.
          T  Aout(idLhea)      Write out averaged latent heat flux.
          T  Aout(idShea)      Write out averaged sensible heat flux.
          T  Aout(idDano)      Write out averaged density anomaly.
          T  Aout(idVvis)      Write out averaged vertical viscosity: AKv.
          T  Aout(idTdif)      Write out averaged vertical diffusion: AKt(itemp).
          T  Aout(idSdif)      Write out averaged vertical diffusion: AKt(isalt).
          T  Aout(idHsbl)      Write out averaged depth of surface boundary layer.


          T  Dout(M3rate)      Write out 3D momentum acceleration.
          T  Dout(M3pgrd)      Write out 3D momentum pressure gradient.
          T  Dout(M3fcor)      Write out 3D momentum Coriolis force.
          T  Dout(M3hadv)      Write out 3D momentum horizontal advection.
          T  Dout(M3vadv)      Write out 3D momentum vertical advection.
          T  Dout(M3hvis)      Write out 3D momentum horizontal viscosity.
          T  Dout(M3vvis)      Write out 3D momentum vertical viscosity.

          T  Dout(iTrate)      Write out rate of change of tracer 01: temp
          T  Dout(iTrate)      Write out rate of change of tracer 02: salt
          T  Dout(iThadv)      Write out horizontal advection, tracer 01: temp
          T  Dout(iThadv)      Write out horizontal advection, tracer 02: salt
          T  Dout(iTvadv)      Write out vertical advection, tracer 01: temp
          T  Dout(iTvadv)      Write out vertical advection, tracer 02: salt
          T  Dout(iThdif)      Write out horizontal diffusion, tracer 01: temp
          T  Dout(iThdif)      Write out horizontal diffusion, tracer 02: salt
          T  Dout(iTvdif)      Write out vertical diffusion, tracer 01: temp
          T  Dout(iTvdif)      Write out vertical diffusion, tracer 02: salt

          1  inp_lib           Using standard NetCDF library for input files.
          1  pio_method        Parallel read and write of PnetCDF files (NetCDF3).
         45  pio_NumIOtasks    Number of mpi-processors used for I/O.
         20  pio_stride        Stride step in the mpi-rank between I/O tasks.
          0  pio_base          Offset for the first I/O task.
          1  pio_aggregator    Number of mpi-aggregators for intra-communications.
          1  pio_rearranger    Box rearrangement method.
          0  pio_rearr_comm    Point-to-Point rearranger communications.
          0  pio_rearr_fcd     Enabled C2I flow control, and vice versa.
          T  pio_rearr_C2I_HS  Enabled C2I rearranger handshake.
          T  pio_rearr_I2C_HS  Enabled I2C rearranger handshake.
          F  pio_rearr_C2I_iS  Enabled C2I rearranger mpi-Isends.
          F  pio_rearr_I2C_iS  Enabled I2C rearranger mpi-Isends.
         64  pio_rearr_C2I_PR  Maximum C2I rearranger pending requests.
         65  pio_rearr_I2C_PR  Maximum I2C rearranger pending requests.

 Output/Input Files:

               Output Restart File:  ./Output_parallel/Nest1kmExp_rst3.nc
          Prefix for History Files:  ./Output_parallel/Nest1kmExp_his
         Prefix for Averages Files:  ./Output_parallel/Nest1kmExp_avg
      Prefix for Diagnostics Files:  ./Output_parallel/Nest1kmExp_dia
                   Input Grid File:  /home/cesm01/NP_1km/InputNC/grid1km.nc
      Input Nonlinear Initial File:  /home/cesm01/NP_1km/Output/Nest1kmExp_rst2.nc
             Input Forcing File 01:  /home/cesm01/NP_1km/InputNC/Nest1kmExp_wind_CFSR2.nc
             Input Forcing File 02:  /home/cesm01/NP_1km/InputNC/Nest1kmExp_swrad_CFSR2.nc
             Input Forcing File 03:  /home/cesm01/NP_1km/InputNC/Nest1kmExp_downward_lwrad_CFSR2.nc
             Input Forcing File 04:  /home/cesm01/NP_1km/InputNC/Nest1kmExp_Qair_CFSR2.nc
             Input Forcing File 05:  /home/cesm01/NP_1km/InputNC/Nest1kmExp_Tair_CFSR2.nc
             Input Forcing File 06:  /home/cesm01/NP_1km/InputNC/Nest1kmExp_Rain_CFSR2.nc
             Input Forcing File 07:  /home/cesm01/NP_1km/InputNC/Nest1kmExp_Pair_CFSR2.nc
             Input Forcing File 08:  /home/cesm01/NP_1km/InputNC/Nest1kmExp_surfrestore_SODA2.nc
    Input Lateral Boundary File 01:  /home/cesm01/NP_1km/InputNC/Nest1kmExp_bry1km.nc
  ROMS I/O variables Metadata File:  /home/cesm01/roms-4.0/ROMS/External/varinfo.dat

 Tile partition information for Grid 01:  1998x1521x65  tiling: 40x30

     tile     Istr     Iend     Jstr     Jend     Npts

        0        1       49        1       47   149695
        1       50       99        1       47   152750
        2      100      149        1       47   152750
        3      150      199        1       47   152750
        4      200      249        1       47   152750
        5      250      299        1       47   152750
        6      300      349        1       47   152750
        7      350      399        1       47   152750
        8      400      449        1       47   152750
        9      450      499        1       47   152750
       10      500      549        1       47   152750
       11      550      599        1       47   152750
       12      600      649        1       47   152750
       13      650      699        1       47   152750
       14      700      749        1       47   152750
       15      750      799        1       47   152750
       16      800      849        1       47   152750
       17      850      899        1       47   152750
       18      900      949        1       47   152750
       19      950      999        1       47   152750
       20     1000     1049        1       47   152750
       21     1050     1099        1       47   152750
       22     1100     1149        1       47   152750
       23     1150     1199        1       47   152750
       24     1200     1249        1       47   152750
       25     1250     1299        1       47   152750
       26     1300     1349        1       47   152750
       27     1350     1399        1       47   152750
       28     1400     1449        1       47   152750
       29     1450     1499        1       47   152750
       30     1500     1549        1       47   152750
       31     1550     1599        1       47   152750
       32     1600     1649        1       47   152750
       33     1650     1699        1       47   152750
       34     1700     1749        1       47   152750
       35     1750     1799        1       47   152750
       36     1800     1849        1       47   152750
       37     1850     1899        1       47   152750
       38     1900     1949        1       47   152750
       39     1950     1998        1       47   149695
       40        1       49       48       98   162435
       41       50       99       48       98   165750
       42      100      149       48       98   165750
       43      150      199       48       98   165750
       44      200      249       48       98   165750
       45      250      299       48       98   165750
       46      300      349       48       98   165750
       47      350      399       48       98   165750
       48      400      449       48       98   165750
       49      450      499       48       98   165750
       50      500      549       48       98   165750
       51      550      599       48       98   165750
       52      600      649       48       98   165750
       53      650      699       48       98   165750
       54      700      749       48       98   165750
       55      750      799       48       98   165750
       56      800      849       48       98   165750
       57      850      899       48       98   165750
       58      900      949       48       98   165750
       59      950      999       48       98   165750
       60     1000     1049       48       98   165750
       61     1050     1099       48       98   165750
       62     1100     1149       48       98   165750
       63     1150     1199       48       98   165750
       64     1200     1249       48       98   165750
       65     1250     1299       48       98   165750
       66     1300     1349       48       98   165750
       67     1350     1399       48       98   165750
       68     1400     1449       48       98   165750
       69     1450     1499       48       98   165750
       70     1500     1549       48       98   165750
       71     1550     1599       48       98   165750
       72     1600     1649       48       98   165750
       73     1650     1699       48       98   165750
       74     1700     1749       48       98   165750
       75     1750     1799       48       98   165750
       76     1800     1849       48       98   165750
       77     1850     1899       48       98   165750
       78     1900     1949       48       98   165750
       79     1950     1998       48       98   162435
       80        1       49       99      149   162435
       81       50       99       99      149   165750
       82      100      149       99      149   165750
       83      150      199       99      149   165750
       84      200      249       99      149   165750
       85      250      299       99      149   165750
       86      300      349       99      149   165750
       87      350      399       99      149   165750
       88      400      449       99      149   165750
       89      450      499       99      149   165750
       90      500      549       99      149   165750
       91      550      599       99      149   165750
       92      600      649       99      149   165750
       93      650      699       99      149   165750
       94      700      749       99      149   165750
       95      750      799       99      149   165750
       96      800      849       99      149   165750
       97      850      899       99      149   165750
       98      900      949       99      149   165750
       99      950      999       99      149   165750
      100     1000     1049       99      149   165750
      101     1050     1099       99      149   165750
      102     1100     1149       99      149   165750
      103     1150     1199       99      149   165750
      104     1200     1249       99      149   165750
      105     1250     1299       99      149   165750
      106     1300     1349       99      149   165750
      107     1350     1399       99      149   165750
      108     1400     1449       99      149   165750
      109     1450     1499       99      149   165750
      110     1500     1549       99      149   165750
      111     1550     1599       99      149   165750
      112     1600     1649       99      149   165750
      113     1650     1699       99      149   165750
      114     1700     1749       99      149   165750
      115     1750     1799       99      149   165750
      116     1800     1849       99      149   165750
      117     1850     1899       99      149   165750
      118     1900     1949       99      149   165750
      119     1950     1998       99      149   162435
      120        1       49      150      200   162435
      121       50       99      150      200   165750
      122      100      149      150      200   165750
      123      150      199      150      200   165750
      124      200      249      150      200   165750
      125      250      299      150      200   165750
      126      300      349      150      200   165750
      127      350      399      150      200   165750
      128      400      449      150      200   165750
      129      450      499      150      200   165750
      130      500      549      150      200   165750
      131      550      599      150      200   165750
      132      600      649      150      200   165750
      133      650      699      150      200   165750
      134      700      749      150      200   165750
      135      750      799      150      200   165750
      136      800      849      150      200   165750
      137      850      899      150      200   165750
      138      900      949      150      200   165750
      139      950      999      150      200   165750
      140     1000     1049      150      200   165750
      141     1050     1099      150      200   165750
      142     1100     1149      150      200   165750
      143     1150     1199      150      200   165750
      144     1200     1249      150      200   165750
      145     1250     1299      150      200   165750
      146     1300     1349      150      200   165750
      147     1350     1399      150      200   165750
      148     1400     1449      150      200   165750
      149     1450     1499      150      200   165750
      150     1500     1549      150      200   165750
      151     1550     1599      150      200   165750
      152     1600     1649      150      200   165750
      153     1650     1699      150      200   165750
      154     1700     1749      150      200   165750
      155     1750     1799      150      200   165750
      156     1800     1849      150      200   165750
      157     1850     1899      150      200   165750
      158     1900     1949      150      200   165750
      159     1950     1998      150      200   162435
      160        1       49      201      251   162435
      161       50       99      201      251   165750
      162      100      149      201      251   165750
      163      150      199      201      251   165750
      164      200      249      201      251   165750
      165      250      299      201      251   165750
      166      300      349      201      251   165750
      167      350      399      201      251   165750
      168      400      449      201      251   165750
      169      450      499      201      251   165750
      170      500      549      201      251   165750
      171      550      599      201      251   165750
      172      600      649      201      251   165750
      173      650      699      201      251   165750
      174      700      749      201      251   165750
      175      750      799      201      251   165750
      176      800      849      201      251   165750
      177      850      899      201      251   165750
      178      900      949      201      251   165750
      179      950      999      201      251   165750
      180     1000     1049      201      251   165750
      181     1050     1099      201      251   165750
      182     1100     1149      201      251   165750
      183     1150     1199      201      251   165750
      184     1200     1249      201      251   165750
      185     1250     1299      201      251   165750
      186     1300     1349      201      251   165750
      187     1350     1399      201      251   165750
      188     1400     1449      201      251   165750
      189     1450     1499      201      251   165750
      190     1500     1549      201      251   165750
      191     1550     1599      201      251   165750
      192     1600     1649      201      251   165750
      193     1650     1699      201      251   165750
      194     1700     1749      201      251   165750
      195     1750     1799      201      251   165750
      196     1800     1849      201      251   165750
      197     1850     1899      201      251   165750
      198     1900     1949      201      251   165750
      199     1950     1998      201      251   162435
      200        1       49      252      302   162435
      201       50       99      252      302   165750
      202      100      149      252      302   165750
      203      150      199      252      302   165750
      204      200      249      252      302   165750
      205      250      299      252      302   165750
      206      300      349      252      302   165750
      207      350      399      252      302   165750
      208      400      449      252      302   165750
      209      450      499      252      302   165750
      210      500      549      252      302   165750
      211      550      599      252      302   165750
      212      600      649      252      302   165750
      213      650      699      252      302   165750
      214      700      749      252      302   165750
      215      750      799      252      302   165750
      216      800      849      252      302   165750
      217      850      899      252      302   165750
      218      900      949      252      302   165750
      219      950      999      252      302   165750
      220     1000     1049      252      302   165750
      221     1050     1099      252      302   165750
      222     1100     1149      252      302   165750
      223     1150     1199      252      302   165750
      224     1200     1249      252      302   165750
      225     1250     1299      252      302   165750
      226     1300     1349      252      302   165750
      227     1350     1399      252      302   165750
      228     1400     1449      252      302   165750
      229     1450     1499      252      302   165750
      230     1500     1549      252      302   165750
      231     1550     1599      252      302   165750
      232     1600     1649      252      302   165750
      233     1650     1699      252      302   165750
      234     1700     1749      252      302   165750
      235     1750     1799      252      302   165750
      236     1800     1849      252      302   165750
      237     1850     1899      252      302   165750
      238     1900     1949      252      302   165750
      239     1950     1998      252      302   162435
      240        1       49      303      353   162435
      241       50       99      303      353   165750
      242      100      149      303      353   165750
      243      150      199      303      353   165750
      244      200      249      303      353   165750
      245      250      299      303      353   165750
      246      300      349      303      353   165750
      247      350      399      303      353   165750
      248      400      449      303      353   165750
      249      450      499      303      353   165750
      250      500      549      303      353   165750
      251      550      599      303      353   165750
      252      600      649      303      353   165750
      253      650      699      303      353   165750
      254      700      749      303      353   165750
      255      750      799      303      353   165750
      256      800      849      303      353   165750
      257      850      899      303      353   165750
      258      900      949      303      353   165750
      259      950      999      303      353   165750
      260     1000     1049      303      353   165750
      261     1050     1099      303      353   165750
      262     1100     1149      303      353   165750
      263     1150     1199      303      353   165750
      264     1200     1249      303      353   165750
      265     1250     1299      303      353   165750
      266     1300     1349      303      353   165750
      267     1350     1399      303      353   165750
      268     1400     1449      303      353   165750
      269     1450     1499      303      353   165750
      270     1500     1549      303      353   165750
      271     1550     1599      303      353   165750
      272     1600     1649      303      353   165750
      273     1650     1699      303      353   165750
      274     1700     1749      303      353   165750
      275     1750     1799      303      353   165750
      276     1800     1849      303      353   165750
      277     1850     1899      303      353   165750
      278     1900     1949      303      353   165750
      279     1950     1998      303      353   162435
      280        1       49      354      404   162435
      281       50       99      354      404   165750
      282      100      149      354      404   165750
      283      150      199      354      404   165750
      284      200      249      354      404   165750
      285      250      299      354      404   165750
      286      300      349      354      404   165750
      287      350      399      354      404   165750
      288      400      449      354      404   165750
      289      450      499      354      404   165750
      290      500      549      354      404   165750
      291      550      599      354      404   165750
      292      600      649      354      404   165750
      293      650      699      354      404   165750
      294      700      749      354      404   165750
      295      750      799      354      404   165750
      296      800      849      354      404   165750
      297      850      899      354      404   165750
      298      900      949      354      404   165750
      299      950      999      354      404   165750
      300     1000     1049      354      404   165750
      301     1050     1099      354      404   165750
      302     1100     1149      354      404   165750
      303     1150     1199      354      404   165750
      304     1200     1249      354      404   165750
      305     1250     1299      354      404   165750
      306     1300     1349      354      404   165750
      307     1350     1399      354      404   165750
      308     1400     1449      354      404   165750
      309     1450     1499      354      404   165750
      310     1500     1549      354      404   165750
      311     1550     1599      354      404   165750
      312     1600     1649      354      404   165750
      313     1650     1699      354      404   165750
      314     1700     1749      354      404   165750
      315     1750     1799      354      404   165750
      316     1800     1849      354      404   165750
      317     1850     1899      354      404   165750
      318     1900     1949      354      404   165750
      319     1950     1998      354      404   162435
      320        1       49      405      455   162435
      321       50       99      405      455   165750
      322      100      149      405      455   165750
      323      150      199      405      455   165750
      324      200      249      405      455   165750
      325      250      299      405      455   165750
      326      300      349      405      455   165750
      327      350      399      405      455   165750
      328      400      449      405      455   165750
      329      450      499      405      455   165750
      330      500      549      405      455   165750
      331      550      599      405      455   165750
      332      600      649      405      455   165750
      333      650      699      405      455   165750
      334      700      749      405      455   165750
      335      750      799      405      455   165750
      336      800      849      405      455   165750
      337      850      899      405      455   165750
      338      900      949      405      455   165750
      339      950      999      405      455   165750
      340     1000     1049      405      455   165750
      341     1050     1099      405      455   165750
      342     1100     1149      405      455   165750
      343     1150     1199      405      455   165750
      344     1200     1249      405      455   165750
      345     1250     1299      405      455   165750
      346     1300     1349      405      455   165750
      347     1350     1399      405      455   165750
      348     1400     1449      405      455   165750
      349     1450     1499      405      455   165750
      350     1500     1549      405      455   165750
      351     1550     1599      405      455   165750
      352     1600     1649      405      455   165750
      353     1650     1699      405      455   165750
      354     1700     1749      405      455   165750
      355     1750     1799      405      455   165750
      356     1800     1849      405      455   165750
      357     1850     1899      405      455   165750
      358     1900     1949      405      455   165750
      359     1950     1998      405      455   162435
      360        1       49      456      506   162435
      361       50       99      456      506   165750
      362      100      149      456      506   165750
      363      150      199      456      506   165750
      364      200      249      456      506   165750
      365      250      299      456      506   165750
      366      300      349      456      506   165750
      367      350      399      456      506   165750
      368      400      449      456      506   165750
      369      450      499      456      506   165750
      370      500      549      456      506   165750
      371      550      599      456      506   165750
      372      600      649      456      506   165750
      373      650      699      456      506   165750
      374      700      749      456      506   165750
      375      750      799      456      506   165750
      376      800      849      456      506   165750
      377      850      899      456      506   165750
      378      900      949      456      506   165750
      379      950      999      456      506   165750
      380     1000     1049      456      506   165750
      381     1050     1099      456      506   165750
      382     1100     1149      456      506   165750
      383     1150     1199      456      506   165750
      384     1200     1249      456      506   165750
      385     1250     1299      456      506   165750
      386     1300     1349      456      506   165750
      387     1350     1399      456      506   165750
      388     1400     1449      456      506   165750
      389     1450     1499      456      506   165750
      390     1500     1549      456      506   165750
      391     1550     1599      456      506   165750
      392     1600     1649      456      506   165750
      393     1650     1699      456      506   165750
      394     1700     1749      456      506   165750
      395     1750     1799      456      506   165750
      396     1800     1849      456      506   165750
      397     1850     1899      456      506   165750
      398     1900     1949      456      506   165750
      399     1950     1998      456      506   162435
      400        1       49      507      557   162435
      401       50       99      507      557   165750
      402      100      149      507      557   165750
      403      150      199      507      557   165750
      404      200      249      507      557   165750
      405      250      299      507      557   165750
      406      300      349      507      557   165750
      407      350      399      507      557   165750
      408      400      449      507      557   165750
      409      450      499      507      557   165750
      410      500      549      507      557   165750
      411      550      599      507      557   165750
      412      600      649      507      557   165750
      413      650      699      507      557   165750
      414      700      749      507      557   165750
      415      750      799      507      557   165750
      416      800      849      507      557   165750
      417      850      899      507      557   165750
      418      900      949      507      557   165750
      419      950      999      507      557   165750
      420     1000     1049      507      557   165750
      421     1050     1099      507      557   165750
      422     1100     1149      507      557   165750
      423     1150     1199      507      557   165750
      424     1200     1249      507      557   165750
      425     1250     1299      507      557   165750
      426     1300     1349      507      557   165750
      427     1350     1399      507      557   165750
      428     1400     1449      507      557   165750
      429     1450     1499      507      557   165750
      430     1500     1549      507      557   165750
      431     1550     1599      507      557   165750
      432     1600     1649      507      557   165750
      433     1650     1699      507      557   165750
      434     1700     1749      507      557   165750
      435     1750     1799      507      557   165750
      436     1800     1849      507      557   165750
      437     1850     1899      507      557   165750
      438     1900     1949      507      557   165750
      439     1950     1998      507      557   162435
      440        1       49      558      608   162435
      441       50       99      558      608   165750
      442      100      149      558      608   165750
      443      150      199      558      608   165750
      444      200      249      558      608   165750
      445      250      299      558      608   165750
      446      300      349      558      608   165750
      447      350      399      558      608   165750
      448      400      449      558      608   165750
      449      450      499      558      608   165750
      450      500      549      558      608   165750
      451      550      599      558      608   165750
      452      600      649      558      608   165750
      453      650      699      558      608   165750
      454      700      749      558      608   165750
      455      750      799      558      608   165750
      456      800      849      558      608   165750
      457      850      899      558      608   165750
      458      900      949      558      608   165750
      459      950      999      558      608   165750
      460     1000     1049      558      608   165750
      461     1050     1099      558      608   165750
      462     1100     1149      558      608   165750
      463     1150     1199      558      608   165750
      464     1200     1249      558      608   165750
      465     1250     1299      558      608   165750
      466     1300     1349      558      608   165750
      467     1350     1399      558      608   165750
      468     1400     1449      558      608   165750
      469     1450     1499      558      608   165750
      470     1500     1549      558      608   165750
      471     1550     1599      558      608   165750
      472     1600     1649      558      608   165750
      473     1650     1699      558      608   165750
      474     1700     1749      558      608   165750
      475     1750     1799      558      608   165750
      476     1800     1849      558      608   165750
      477     1850     1899      558      608   165750
      478     1900     1949      558      608   165750
      479     1950     1998      558      608   162435
      480        1       49      609      659   162435
      481       50       99      609      659   165750
      482      100      149      609      659   165750
      483      150      199      609      659   165750
      484      200      249      609      659   165750
      485      250      299      609      659   165750
      486      300      349      609      659   165750
      487      350      399      609      659   165750
      488      400      449      609      659   165750
      489      450      499      609      659   165750
      490      500      549      609      659   165750
      491      550      599      609      659   165750
      492      600      649      609      659   165750
      493      650      699      609      659   165750
      494      700      749      609      659   165750
      495      750      799      609      659   165750
      496      800      849      609      659   165750
      497      850      899      609      659   165750
      498      900      949      609      659   165750
      499      950      999      609      659   165750
      500     1000     1049      609      659   165750
      501     1050     1099      609      659   165750
      502     1100     1149      609      659   165750
      503     1150     1199      609      659   165750
      504     1200     1249      609      659   165750
      505     1250     1299      609      659   165750
      506     1300     1349      609      659   165750
      507     1350     1399      609      659   165750
      508     1400     1449      609      659   165750
      509     1450     1499      609      659   165750
      510     1500     1549      609      659   165750
      511     1550     1599      609      659   165750
      512     1600     1649      609      659   165750
      513     1650     1699      609      659   165750
      514     1700     1749      609      659   165750
      515     1750     1799      609      659   165750
      516     1800     1849      609      659   165750
      517     1850     1899      609      659   165750
      518     1900     1949      609      659   165750
      519     1950     1998      609      659   162435
      520        1       49      660      710   162435
      521       50       99      660      710   165750
      522      100      149      660      710   165750
      523      150      199      660      710   165750
      524      200      249      660      710   165750
      525      250      299      660      710   165750
      526      300      349      660      710   165750
      527      350      399      660      710   165750
      528      400      449      660      710   165750
      529      450      499      660      710   165750
      530      500      549      660      710   165750
      531      550      599      660      710   165750
      532      600      649      660      710   165750
      533      650      699      660      710   165750
      534      700      749      660      710   165750
      535      750      799      660      710   165750
      536      800      849      660      710   165750
      537      850      899      660      710   165750
      538      900      949      660      710   165750
      539      950      999      660      710   165750
      540     1000     1049      660      710   165750
      541     1050     1099      660      710   165750
      542     1100     1149      660      710   165750
      543     1150     1199      660      710   165750
      544     1200     1249      660      710   165750
      545     1250     1299      660      710   165750
      546     1300     1349      660      710   165750
      547     1350     1399      660      710   165750
      548     1400     1449      660      710   165750
      549     1450     1499      660      710   165750
      550     1500     1549      660      710   165750
      551     1550     1599      660      710   165750
      552     1600     1649      660      710   165750
      553     1650     1699      660      710   165750
      554     1700     1749      660      710   165750
      555     1750     1799      660      710   165750
      556     1800     1849      660      710   165750
      557     1850     1899      660      710   165750
      558     1900     1949      660      710   165750
      559     1950     1998      660      710   162435
      560        1       49      711      761   162435
      561       50       99      711      761   165750
      562      100      149      711      761   165750
      563      150      199      711      761   165750
      564      200      249      711      761   165750
      565      250      299      711      761   165750
      566      300      349      711      761   165750
      567      350      399      711      761   165750
      568      400      449      711      761   165750
      569      450      499      711      761   165750
      570      500      549      711      761   165750
      571      550      599      711      761   165750
      572      600      649      711      761   165750
      573      650      699      711      761   165750
      574      700      749      711      761   165750
      575      750      799      711      761   165750
      576      800      849      711      761   165750
      577      850      899      711      761   165750
      578      900      949      711      761   165750
      579      950      999      711      761   165750
      580     1000     1049      711      761   165750
      581     1050     1099      711      761   165750
      582     1100     1149      711      761   165750
      583     1150     1199      711      761   165750
      584     1200     1249      711      761   165750
      585     1250     1299      711      761   165750
      586     1300     1349      711      761   165750
      587     1350     1399      711      761   165750
      588     1400     1449      711      761   165750
      589     1450     1499      711      761   165750
      590     1500     1549      711      761   165750
      591     1550     1599      711      761   165750
      592     1600     1649      711      761   165750
      593     1650     1699      711      761   165750
      594     1700     1749      711      761   165750
      595     1750     1799      711      761   165750
      596     1800     1849      711      761   165750
      597     1850     1899      711      761   165750
      598     1900     1949      711      761   165750
      599     1950     1998      711      761   162435
      600        1       49      762      812   162435
      601       50       99      762      812   165750
      602      100      149      762      812   165750
      603      150      199      762      812   165750
      604      200      249      762      812   165750
      605      250      299      762      812   165750
      606      300      349      762      812   165750
      607      350      399      762      812   165750
      608      400      449      762      812   165750
      609      450      499      762      812   165750
      610      500      549      762      812   165750
      611      550      599      762      812   165750
      612      600      649      762      812   165750
      613      650      699      762      812   165750
      614      700      749      762      812   165750
      615      750      799      762      812   165750
      616      800      849      762      812   165750
      617      850      899      762      812   165750
      618      900      949      762      812   165750
      619      950      999      762      812   165750
      620     1000     1049      762      812   165750
      621     1050     1099      762      812   165750
      622     1100     1149      762      812   165750
      623     1150     1199      762      812   165750
      624     1200     1249      762      812   165750
      625     1250     1299      762      812   165750
      626     1300     1349      762      812   165750
      627     1350     1399      762      812   165750
      628     1400     1449      762      812   165750
      629     1450     1499      762      812   165750
      630     1500     1549      762      812   165750
      631     1550     1599      762      812   165750
      632     1600     1649      762      812   165750
      633     1650     1699      762      812   165750
      634     1700     1749      762      812   165750
      635     1750     1799      762      812   165750
      636     1800     1849      762      812   165750
      637     1850     1899      762      812   165750
      638     1900     1949      762      812   165750
      639     1950     1998      762      812   162435
      640        1       49      813      863   162435
      641       50       99      813      863   165750
      642      100      149      813      863   165750
      643      150      199      813      863   165750
      644      200      249      813      863   165750
      645      250      299      813      863   165750
      646      300      349      813      863   165750
      647      350      399      813      863   165750
      648      400      449      813      863   165750
      649      450      499      813      863   165750
      650      500      549      813      863   165750
      651      550      599      813      863   165750
      652      600      649      813      863   165750
      653      650      699      813      863   165750
      654      700      749      813      863   165750
      655      750      799      813      863   165750
      656      800      849      813      863   165750
      657      850      899      813      863   165750
      658      900      949      813      863   165750
      659      950      999      813      863   165750
      660     1000     1049      813      863   165750
      661     1050     1099      813      863   165750
      662     1100     1149      813      863   165750
      663     1150     1199      813      863   165750
      664     1200     1249      813      863   165750
      665     1250     1299      813      863   165750
      666     1300     1349      813      863   165750
      667     1350     1399      813      863   165750
      668     1400     1449      813      863   165750
      669     1450     1499      813      863   165750
      670     1500     1549      813      863   165750
      671     1550     1599      813      863   165750
      672     1600     1649      813      863   165750
      673     1650     1699      813      863   165750
      674     1700     1749      813      863   165750
      675     1750     1799      813      863   165750
      676     1800     1849      813      863   165750
      677     1850     1899      813      863   165750
      678     1900     1949      813      863   165750
      679     1950     1998      813      863   162435
      680        1       49      864      914   162435
      681       50       99      864      914   165750
      682      100      149      864      914   165750
      683      150      199      864      914   165750
      684      200      249      864      914   165750
      685      250      299      864      914   165750
      686      300      349      864      914   165750
      687      350      399      864      914   165750
      688      400      449      864      914   165750
      689      450      499      864      914   165750
      690      500      549      864      914   165750
      691      550      599      864      914   165750
      692      600      649      864      914   165750
      693      650      699      864      914   165750
      694      700      749      864      914   165750
      695      750      799      864      914   165750
      696      800      849      864      914   165750
      697      850      899      864      914   165750
      698      900      949      864      914   165750
      699      950      999      864      914   165750
      700     1000     1049      864      914   165750
      701     1050     1099      864      914   165750
      702     1100     1149      864      914   165750
      703     1150     1199      864      914   165750
      704     1200     1249      864      914   165750
      705     1250     1299      864      914   165750
      706     1300     1349      864      914   165750
      707     1350     1399      864      914   165750
      708     1400     1449      864      914   165750
      709     1450     1499      864      914   165750
      710     1500     1549      864      914   165750
      711     1550     1599      864      914   165750
      712     1600     1649      864      914   165750
      713     1650     1699      864      914   165750
      714     1700     1749      864      914   165750
      715     1750     1799      864      914   165750
      716     1800     1849      864      914   165750
      717     1850     1899      864      914   165750
      718     1900     1949      864      914   165750
      719     1950     1998      864      914   162435
      720        1       49      915      965   162435
      721       50       99      915      965   165750
      722      100      149      915      965   165750
      723      150      199      915      965   165750
      724      200      249      915      965   165750
      725      250      299      915      965   165750
      726      300      349      915      965   165750
      727      350      399      915      965   165750
      728      400      449      915      965   165750
      729      450      499      915      965   165750
      730      500      549      915      965   165750
      731      550      599      915      965   165750
      732      600      649      915      965   165750
      733      650      699      915      965   165750
      734      700      749      915      965   165750
      735      750      799      915      965   165750
      736      800      849      915      965   165750
      737      850      899      915      965   165750
      738      900      949      915      965   165750
      739      950      999      915      965   165750
      740     1000     1049      915      965   165750
      741     1050     1099      915      965   165750
      742     1100     1149      915      965   165750
      743     1150     1199      915      965   165750
      744     1200     1249      915      965   165750
      745     1250     1299      915      965   165750
      746     1300     1349      915      965   165750
      747     1350     1399      915      965   165750
      748     1400     1449      915      965   165750
      749     1450     1499      915      965   165750
      750     1500     1549      915      965   165750
      751     1550     1599      915      965   165750
      752     1600     1649      915      965   165750
      753     1650     1699      915      965   165750
      754     1700     1749      915      965   165750
      755     1750     1799      915      965   165750
      756     1800     1849      915      965   165750
      757     1850     1899      915      965   165750
      758     1900     1949      915      965   165750
      759     1950     1998      915      965   162435
      760        1       49      966     1016   162435
      761       50       99      966     1016   165750
      762      100      149      966     1016   165750
      763      150      199      966     1016   165750
      764      200      249      966     1016   165750
      765      250      299      966     1016   165750
      766      300      349      966     1016   165750
      767      350      399      966     1016   165750
      768      400      449      966     1016   165750
      769      450      499      966     1016   165750
      770      500      549      966     1016   165750
      771      550      599      966     1016   165750
      772      600      649      966     1016   165750
      773      650      699      966     1016   165750
      774      700      749      966     1016   165750
      775      750      799      966     1016   165750
      776      800      849      966     1016   165750
      777      850      899      966     1016   165750
      778      900      949      966     1016   165750
      779      950      999      966     1016   165750
      780     1000     1049      966     1016   165750
      781     1050     1099      966     1016   165750
      782     1100     1149      966     1016   165750
      783     1150     1199      966     1016   165750
      784     1200     1249      966     1016   165750
      785     1250     1299      966     1016   165750
      786     1300     1349      966     1016   165750
      787     1350     1399      966     1016   165750
      788     1400     1449      966     1016   165750
      789     1450     1499      966     1016   165750
      790     1500     1549      966     1016   165750
      791     1550     1599      966     1016   165750
      792     1600     1649      966     1016   165750
      793     1650     1699      966     1016   165750
      794     1700     1749      966     1016   165750
      795     1750     1799      966     1016   165750
      796     1800     1849      966     1016   165750
      797     1850     1899      966     1016   165750
      798     1900     1949      966     1016   165750
      799     1950     1998      966     1016   162435
      800        1       49     1017     1067   162435
      801       50       99     1017     1067   165750
      802      100      149     1017     1067   165750
      803      150      199     1017     1067   165750
      804      200      249     1017     1067   165750
      805      250      299     1017     1067   165750
      806      300      349     1017     1067   165750
      807      350      399     1017     1067   165750
      808      400      449     1017     1067   165750
      809      450      499     1017     1067   165750
      810      500      549     1017     1067   165750
      811      550      599     1017     1067   165750
      812      600      649     1017     1067   165750
      813      650      699     1017     1067   165750
      814      700      749     1017     1067   165750
      815      750      799     1017     1067   165750
      816      800      849     1017     1067   165750
      817      850      899     1017     1067   165750
      818      900      949     1017     1067   165750
      819      950      999     1017     1067   165750
      820     1000     1049     1017     1067   165750
      821     1050     1099     1017     1067   165750
      822     1100     1149     1017     1067   165750
      823     1150     1199     1017     1067   165750
      824     1200     1249     1017     1067   165750
      825     1250     1299     1017     1067   165750
      826     1300     1349     1017     1067   165750
      827     1350     1399     1017     1067   165750
      828     1400     1449     1017     1067   165750
      829     1450     1499     1017     1067   165750
      830     1500     1549     1017     1067   165750
      831     1550     1599     1017     1067   165750
      832     1600     1649     1017     1067   165750
      833     1650     1699     1017     1067   165750
      834     1700     1749     1017     1067   165750
      835     1750     1799     1017     1067   165750
      836     1800     1849     1017     1067   165750
      837     1850     1899     1017     1067   165750
      838     1900     1949     1017     1067   165750
      839     1950     1998     1017     1067   162435
      840        1       49     1068     1118   162435
      841       50       99     1068     1118   165750
      842      100      149     1068     1118   165750
      843      150      199     1068     1118   165750
      844      200      249     1068     1118   165750
      845      250      299     1068     1118   165750
      846      300      349     1068     1118   165750
      847      350      399     1068     1118   165750
      848      400      449     1068     1118   165750
      849      450      499     1068     1118   165750
      850      500      549     1068     1118   165750
      851      550      599     1068     1118   165750
      852      600      649     1068     1118   165750
      853      650      699     1068     1118   165750
      854      700      749     1068     1118   165750
      855      750      799     1068     1118   165750
      856      800      849     1068     1118   165750
      857      850      899     1068     1118   165750
      858      900      949     1068     1118   165750
      859      950      999     1068     1118   165750
      860     1000     1049     1068     1118   165750
      861     1050     1099     1068     1118   165750
      862     1100     1149     1068     1118   165750
      863     1150     1199     1068     1118   165750
      864     1200     1249     1068     1118   165750
      865     1250     1299     1068     1118   165750
      866     1300     1349     1068     1118   165750
      867     1350     1399     1068     1118   165750
      868     1400     1449     1068     1118   165750
      869     1450     1499     1068     1118   165750
      870     1500     1549     1068     1118   165750
      871     1550     1599     1068     1118   165750
      872     1600     1649     1068     1118   165750
      873     1650     1699     1068     1118   165750
      874     1700     1749     1068     1118   165750
      875     1750     1799     1068     1118   165750
      876     1800     1849     1068     1118   165750
      877     1850     1899     1068     1118   165750
      878     1900     1949     1068     1118   165750
      879     1950     1998     1068     1118   162435
      880        1       49     1119     1169   162435
      881       50       99     1119     1169   165750
      882      100      149     1119     1169   165750
      883      150      199     1119     1169   165750
      884      200      249     1119     1169   165750
      885      250      299     1119     1169   165750
      886      300      349     1119     1169   165750
      887      350      399     1119     1169   165750
      888      400      449     1119     1169   165750
      889      450      499     1119     1169   165750
      890      500      549     1119     1169   165750
      891      550      599     1119     1169   165750
      892      600      649     1119     1169   165750
      893      650      699     1119     1169   165750
      894      700      749     1119     1169   165750
      895      750      799     1119     1169   165750
      896      800      849     1119     1169   165750
      897      850      899     1119     1169   165750
      898      900      949     1119     1169   165750
      899      950      999     1119     1169   165750
      900     1000     1049     1119     1169   165750
      901     1050     1099     1119     1169   165750
      902     1100     1149     1119     1169   165750
      903     1150     1199     1119     1169   165750
      904     1200     1249     1119     1169   165750
      905     1250     1299     1119     1169   165750
      906     1300     1349     1119     1169   165750
      907     1350     1399     1119     1169   165750
      908     1400     1449     1119     1169   165750
      909     1450     1499     1119     1169   165750
      910     1500     1549     1119     1169   165750
      911     1550     1599     1119     1169   165750
      912     1600     1649     1119     1169   165750
      913     1650     1699     1119     1169   165750
      914     1700     1749     1119     1169   165750
      915     1750     1799     1119     1169   165750
      916     1800     1849     1119     1169   165750
      917     1850     1899     1119     1169   165750
      918     1900     1949     1119     1169   165750
      919     1950     1998     1119     1169   162435
      920        1       49     1170     1220   162435
      921       50       99     1170     1220   165750
      922      100      149     1170     1220   165750
      923      150      199     1170     1220   165750
      924      200      249     1170     1220   165750
      925      250      299     1170     1220   165750
      926      300      349     1170     1220   165750
      927      350      399     1170     1220   165750
      928      400      449     1170     1220   165750
      929      450      499     1170     1220   165750
      930      500      549     1170     1220   165750
      931      550      599     1170     1220   165750
      932      600      649     1170     1220   165750
      933      650      699     1170     1220   165750
      934      700      749     1170     1220   165750
      935      750      799     1170     1220   165750
      936      800      849     1170     1220   165750
      937      850      899     1170     1220   165750
      938      900      949     1170     1220   165750
      939      950      999     1170     1220   165750
      940     1000     1049     1170     1220   165750
      941     1050     1099     1170     1220   165750
      942     1100     1149     1170     1220   165750
      943     1150     1199     1170     1220   165750
      944     1200     1249     1170     1220   165750
      945     1250     1299     1170     1220   165750
      946     1300     1349     1170     1220   165750
      947     1350     1399     1170     1220   165750
      948     1400     1449     1170     1220   165750
      949     1450     1499     1170     1220   165750
      950     1500     1549     1170     1220   165750
      951     1550     1599     1170     1220   165750
      952     1600     1649     1170     1220   165750
      953     1650     1699     1170     1220   165750
      954     1700     1749     1170     1220   165750
      955     1750     1799     1170     1220   165750
      956     1800     1849     1170     1220   165750
      957     1850     1899     1170     1220   165750
      958     1900     1949     1170     1220   165750
      959     1950     1998     1170     1220   162435
      960        1       49     1221     1271   162435
      961       50       99     1221     1271   165750
      962      100      149     1221     1271   165750
      963      150      199     1221     1271   165750
      964      200      249     1221     1271   165750
      965      250      299     1221     1271   165750
      966      300      349     1221     1271   165750
      967      350      399     1221     1271   165750
      968      400      449     1221     1271   165750
      969      450      499     1221     1271   165750
      970      500      549     1221     1271   165750
      971      550      599     1221     1271   165750
      972      600      649     1221     1271   165750
      973      650      699     1221     1271   165750
      974      700      749     1221     1271   165750
      975      750      799     1221     1271   165750
      976      800      849     1221     1271   165750
      977      850      899     1221     1271   165750
      978      900      949     1221     1271   165750
      979      950      999     1221     1271   165750
      980     1000     1049     1221     1271   165750
      981     1050     1099     1221     1271   165750
      982     1100     1149     1221     1271   165750
      983     1150     1199     1221     1271   165750
      984     1200     1249     1221     1271   165750
      985     1250     1299     1221     1271   165750
      986     1300     1349     1221     1271   165750
      987     1350     1399     1221     1271   165750
      988     1400     1449     1221     1271   165750
      989     1450     1499     1221     1271   165750
      990     1500     1549     1221     1271   165750
      991     1550     1599     1221     1271   165750
      992     1600     1649     1221     1271   165750
      993     1650     1699     1221     1271   165750
      994     1700     1749     1221     1271   165750
      995     1750     1799     1221     1271   165750
      996     1800     1849     1221     1271   165750
      997     1850     1899     1221     1271   165750
      998     1900     1949     1221     1271   165750
      999     1950     1998     1221     1271   162435
     1000        1       49     1272     1322   162435
     1001       50       99     1272     1322   165750
     1002      100      149     1272     1322   165750
     1003      150      199     1272     1322   165750
     1004      200      249     1272     1322   165750
     1005      250      299     1272     1322   165750
     1006      300      349     1272     1322   165750
     1007      350      399     1272     1322   165750
     1008      400      449     1272     1322   165750
     1009      450      499     1272     1322   165750
     1010      500      549     1272     1322   165750
     1011      550      599     1272     1322   165750
     1012      600      649     1272     1322   165750
     1013      650      699     1272     1322   165750
     1014      700      749     1272     1322   165750
     1015      750      799     1272     1322   165750
     1016      800      849     1272     1322   165750
     1017      850      899     1272     1322   165750
     1018      900      949     1272     1322   165750
     1019      950      999     1272     1322   165750
     1020     1000     1049     1272     1322   165750
     1021     1050     1099     1272     1322   165750
     1022     1100     1149     1272     1322   165750
     1023     1150     1199     1272     1322   165750
     1024     1200     1249     1272     1322   165750
     1025     1250     1299     1272     1322   165750
     1026     1300     1349     1272     1322   165750
     1027     1350     1399     1272     1322   165750
     1028     1400     1449     1272     1322   165750
     1029     1450     1499     1272     1322   165750
     1030     1500     1549     1272     1322   165750
     1031     1550     1599     1272     1322   165750
     1032     1600     1649     1272     1322   165750
     1033     1650     1699     1272     1322   165750
     1034     1700     1749     1272     1322   165750
     1035     1750     1799     1272     1322   165750
     1036     1800     1849     1272     1322   165750
     1037     1850     1899     1272     1322   165750
     1038     1900     1949     1272     1322   165750
     1039     1950     1998     1272     1322   162435
     1040        1       49     1323     1373   162435
     1041       50       99     1323     1373   165750
     1042      100      149     1323     1373   165750
     1043      150      199     1323     1373   165750
     1044      200      249     1323     1373   165750
     1045      250      299     1323     1373   165750
     1046      300      349     1323     1373   165750
     1047      350      399     1323     1373   165750
     1048      400      449     1323     1373   165750
     1049      450      499     1323     1373   165750
     1050      500      549     1323     1373   165750
     1051      550      599     1323     1373   165750
     1052      600      649     1323     1373   165750
     1053      650      699     1323     1373   165750
     1054      700      749     1323     1373   165750
     1055      750      799     1323     1373   165750
     1056      800      849     1323     1373   165750
     1057      850      899     1323     1373   165750
     1058      900      949     1323     1373   165750
     1059      950      999     1323     1373   165750
     1060     1000     1049     1323     1373   165750
     1061     1050     1099     1323     1373   165750
     1062     1100     1149     1323     1373   165750
     1063     1150     1199     1323     1373   165750
     1064     1200     1249     1323     1373   165750
     1065     1250     1299     1323     1373   165750
     1066     1300     1349     1323     1373   165750
     1067     1350     1399     1323     1373   165750
     1068     1400     1449     1323     1373   165750
     1069     1450     1499     1323     1373   165750
     1070     1500     1549     1323     1373   165750
     1071     1550     1599     1323     1373   165750
     1072     1600     1649     1323     1373   165750
     1073     1650     1699     1323     1373   165750
     1074     1700     1749     1323     1373   165750
     1075     1750     1799     1323     1373   165750
     1076     1800     1849     1323     1373   165750
     1077     1850     1899     1323     1373   165750
     1078     1900     1949     1323     1373   165750
     1079     1950     1998     1323     1373   162435
     1080        1       49     1374     1424   162435
     1081       50       99     1374     1424   165750
     1082      100      149     1374     1424   165750
     1083      150      199     1374     1424   165750
     1084      200      249     1374     1424   165750
     1085      250      299     1374     1424   165750
     1086      300      349     1374     1424   165750
     1087      350      399     1374     1424   165750
     1088      400      449     1374     1424   165750
     1089      450      499     1374     1424   165750
     1090      500      549     1374     1424   165750
     1091      550      599     1374     1424   165750
     1092      600      649     1374     1424   165750
     1093      650      699     1374     1424   165750
     1094      700      749     1374     1424   165750
     1095      750      799     1374     1424   165750
     1096      800      849     1374     1424   165750
     1097      850      899     1374     1424   165750
     1098      900      949     1374     1424   165750
     1099      950      999     1374     1424   165750
     1100     1000     1049     1374     1424   165750
     1101     1050     1099     1374     1424   165750
     1102     1100     1149     1374     1424   165750
     1103     1150     1199     1374     1424   165750
     1104     1200     1249     1374     1424   165750
     1105     1250     1299     1374     1424   165750
     1106     1300     1349     1374     1424   165750
     1107     1350     1399     1374     1424   165750
     1108     1400     1449     1374     1424   165750
     1109     1450     1499     1374     1424   165750
     1110     1500     1549     1374     1424   165750
     1111     1550     1599     1374     1424   165750
     1112     1600     1649     1374     1424   165750
     1113     1650     1699     1374     1424   165750
     1114     1700     1749     1374     1424   165750
     1115     1750     1799     1374     1424   165750
     1116     1800     1849     1374     1424   165750
     1117     1850     1899     1374     1424   165750
     1118     1900     1949     1374     1424   165750
     1119     1950     1998     1374     1424   162435
     1120        1       49     1425     1475   162435
     1121       50       99     1425     1475   165750
     1122      100      149     1425     1475   165750
     1123      150      199     1425     1475   165750
     1124      200      249     1425     1475   165750
     1125      250      299     1425     1475   165750
     1126      300      349     1425     1475   165750
     1127      350      399     1425     1475   165750
     1128      400      449     1425     1475   165750
     1129      450      499     1425     1475   165750
     1130      500      549     1425     1475   165750
     1131      550      599     1425     1475   165750
     1132      600      649     1425     1475   165750
     1133      650      699     1425     1475   165750
     1134      700      749     1425     1475   165750
     1135      750      799     1425     1475   165750
     1136      800      849     1425     1475   165750
     1137      850      899     1425     1475   165750
     1138      900      949     1425     1475   165750
     1139      950      999     1425     1475   165750
     1140     1000     1049     1425     1475   165750
     1141     1050     1099     1425     1475   165750
     1142     1100     1149     1425     1475   165750
     1143     1150     1199     1425     1475   165750
     1144     1200     1249     1425     1475   165750
     1145     1250     1299     1425     1475   165750
     1146     1300     1349     1425     1475   165750
     1147     1350     1399     1425     1475   165750
     1148     1400     1449     1425     1475   165750
     1149     1450     1499     1425     1475   165750
     1150     1500     1549     1425     1475   165750
     1151     1550     1599     1425     1475   165750
     1152     1600     1649     1425     1475   165750
     1153     1650     1699     1425     1475   165750
     1154     1700     1749     1425     1475   165750
     1155     1750     1799     1425     1475   165750
     1156     1800     1849     1425     1475   165750
     1157     1850     1899     1425     1475   165750
     1158     1900     1949     1425     1475   165750
     1159     1950     1998     1425     1475   162435
     1160        1       49     1476     1521   146510
     1161       50       99     1476     1521   149500
     1162      100      149     1476     1521   149500
     1163      150      199     1476     1521   149500
     1164      200      249     1476     1521   149500
     1165      250      299     1476     1521   149500
     1166      300      349     1476     1521   149500
     1167      350      399     1476     1521   149500
     1168      400      449     1476     1521   149500
     1169      450      499     1476     1521   149500
     1170      500      549     1476     1521   149500
     1171      550      599     1476     1521   149500
     1172      600      649     1476     1521   149500
     1173      650      699     1476     1521   149500
     1174      700      749     1476     1521   149500
     1175      750      799     1476     1521   149500
     1176      800      849     1476     1521   149500
     1177      850      899     1476     1521   149500
     1178      900      949     1476     1521   149500
     1179      950      999     1476     1521   149500
     1180     1000     1049     1476     1521   149500
     1181     1050     1099     1476     1521   149500
     1182     1100     1149     1476     1521   149500
     1183     1150     1199     1476     1521   149500
     1184     1200     1249     1476     1521   149500
     1185     1250     1299     1476     1521   149500
     1186     1300     1349     1476     1521   149500
     1187     1350     1399     1476     1521   149500
     1188     1400     1449     1476     1521   149500
     1189     1450     1499     1476     1521   149500
[...]
      950             0.00            48.74            48.74             0.00
      951             0.00            48.74            48.74             0.00
      952             0.00            48.74            48.74             0.00
      953             0.00            48.74            48.74             0.00
      954             0.00            48.74            48.74             0.00
      955             0.00            48.74            48.74             0.00
      956             0.00            48.74            48.74             0.00
      957             0.00            48.74            48.74             0.00
      958             0.00            48.74            48.74             0.00
      959             0.00            48.74            48.74             0.00
      960             0.00            48.74            48.74             0.00
      961             0.00            48.74            48.74             0.00
      962             0.00            48.74            48.74             0.00
      963             0.00            48.74            48.74             0.00
      964             0.00            48.74            48.74             0.00
      965             0.00            48.74            48.74             0.00
      966             0.00            48.74            48.74             0.00
      967             0.00            48.74            48.74             0.00
      968             0.00            48.74            48.74             0.00
      969             0.00            48.74            48.74             0.00
      970             0.00            48.74            48.74             0.00
      971             0.00            48.74            48.74             0.00
      972             0.00            48.74            48.74             0.00
      973             0.00            48.74            48.74             0.00
      974             0.00            48.74            48.74             0.00
      975             0.00            48.74            48.74             0.00
      976             0.00            48.74            48.74             0.00
      977             0.00            48.74            48.74             0.00
      978             0.00            48.74            48.74             0.00
      979             0.00            48.74            48.74             0.00
      980             0.00            48.74            48.74             0.00
      981             0.00            48.74            48.74             0.00
      982             0.00            48.74            48.74             0.00
      983             0.00            48.74            48.74             0.00
      984             0.00            48.74            48.74             0.00
      985             0.00            48.74            48.74             0.00
      986             0.00            48.74            48.74             0.00
      987             0.00            48.74            48.74             0.00
      988             0.00            48.74            48.74             0.00
      989             0.00            48.74            48.74             0.00
      990             0.00            48.74            48.74             0.00
      991             0.00            48.74            48.74             0.00
      992             0.00            48.74            48.74             0.00
      993             0.00            48.74            48.74             0.00
      994             0.00            48.74            48.74             0.00
      995             0.00            48.74            48.74             0.00
      996             0.00            48.74            48.74             0.00
      997             0.00            48.74            48.74             0.00
      998             0.00            48.74            48.74             0.00
      999             0.00            48.74            48.74             0.00
     1000             0.00            48.74            48.74             0.00
     1001             0.00            48.74            48.74             0.00
     1002             0.00            48.74            48.74             0.00
     1003             0.00            48.74            48.74             0.00
     1004             0.00            48.74            48.74             0.00
     1005             0.00            48.74            48.74             0.00
     1006             0.00            48.74            48.74             0.00
     1007             0.00            48.74            48.74             0.00
     1008             0.00            48.74            48.74             0.00
     1009             0.00            48.74            48.74             0.00
     1010             0.00            48.74            48.74             0.00
     1011             0.00            48.74            48.74             0.00
     1012             0.00            48.74            48.74             0.00
     1013             0.00            48.74            48.74             0.00
     1014             0.00            48.74            48.74             0.00
     1015             0.00            48.74            48.74             0.00
     1016             0.00            48.74            48.74             0.00
     1017             0.00            48.74            48.74             0.00
     1018             0.00            48.74            48.74             0.00
     1019             0.00            48.74            48.74             0.00
     1020             0.00            48.74            48.74             0.00
     1021             0.00            48.74            48.74             0.00
     1022             0.00            48.74            48.74             0.00
     1023             0.00            48.74            48.74             0.00
     1024             0.00            48.74            48.74             0.00
     1025             0.00            48.74            48.74             0.00
     1026             0.00            48.74            48.74             0.00
     1027             0.00            48.74            48.74             0.00
     1028             0.00            48.74            48.74             0.00
     1029             0.00            48.74            48.74             0.00
     1030             0.00            48.74            48.74             0.00
     1031             0.00            48.74            48.74             0.00
     1032             0.00            48.74            48.74             0.00
     1033             0.00            48.74            48.74             0.00
     1034             0.00            48.74            48.74             0.00
     1035             0.00            48.74            48.74             0.00
     1036             0.00            48.74            48.74             0.00
     1037             0.00            48.74            48.74             0.00
     1038             0.00            48.74            48.74             0.00
     1039             0.00            48.74            48.74             0.00
     1040             0.00            48.74            48.74             0.00
     1041             0.00            48.74            48.74             0.00
     1042             0.00            48.74            48.74             0.00
     1043             0.00            48.74            48.74             0.00
     1044             0.00            48.74            48.74             0.00
     1045             0.00            48.74            48.74             0.00
     1046             0.00            48.74            48.74             0.00
     1047             0.00            48.74            48.74             0.00
     1048             0.00            48.74            48.74             0.00
     1049             0.00            48.74            48.74             0.00
     1050             0.00            48.74            48.74             0.00
     1051             0.00            48.74            48.74             0.00
     1052             0.00            48.74            48.74             0.00
     1053             0.00            48.74            48.74             0.00
     1054             0.00            48.74            48.74             0.00
     1055             0.00            48.74            48.74             0.00
     1056             0.00            48.74            48.74             0.00
     1057             0.00            48.74            48.74             0.00
     1058             0.00            48.74            48.74             0.00
     1059             0.00            48.74            48.74             0.00
     1060             0.00            48.74            48.74             0.00
     1061             0.00            48.74            48.74             0.00
     1062             0.00            48.74            48.74             0.00
     1063             0.00            48.74            48.74             0.00
     1064             0.00            48.74            48.74             0.00
     1065             0.00            48.74            48.74             0.00
     1066             0.00            48.74            48.74             0.00
     1067             0.00            48.74            48.74             0.00
     1068             0.00            48.74            48.74             0.00
     1069             0.00            48.74            48.74             0.00
     1070             0.00            48.74            48.74             0.00
     1071             0.00            48.74            48.74             0.00
     1072             0.00            48.74            48.74             0.00
     1073             0.00            48.74            48.74             0.00
     1074             0.00            48.74            48.74             0.00
     1075             0.00            48.74            48.74             0.00
     1076             0.00            48.74            48.74             0.00
     1077             0.00            48.74            48.74             0.00
     1078             0.00            48.74            48.74             0.00
     1079             0.00            48.74            48.74             0.00
     1080             0.00            48.74            48.74             0.00
     1081             0.00            48.74            48.74             0.00
     1082             0.00            48.74            48.74             0.00
     1083             0.00            48.74            48.74             0.00
     1084             0.00            48.74            48.74             0.00
     1085             0.00            48.74            48.74             0.00
     1086             0.00            48.74            48.74             0.00
     1087             0.00            48.74            48.74             0.00
     1088             0.00            48.74            48.74             0.00
     1089             0.00            48.74            48.74             0.00
     1090             0.00            48.74            48.74             0.00
     1091             0.00            48.74            48.74             0.00
     1092             0.00            48.74            48.74             0.00
     1093             0.00            48.74            48.74             0.00
     1094             0.00            48.74            48.74             0.00
     1095             0.00            48.74            48.74             0.00
     1096             0.00            48.74            48.74             0.00
     1097             0.00            48.74            48.74             0.00
     1098             0.00            48.74            48.74             0.00
     1099             0.00            48.74            48.74             0.00
     1100             0.00            48.74            48.74             0.00
     1101             0.00            48.74            48.74             0.00
     1102             0.00            48.74            48.74             0.00
     1103             0.00            48.74            48.74             0.00
     1104             0.00            48.74            48.74             0.00
     1105             0.00            48.74            48.74             0.00
     1106             0.00            48.74            48.74             0.00
     1107             0.00            48.74            48.74             0.00
     1108             0.00            48.74            48.74             0.00
     1109             0.00            48.74            48.74             0.00
     1110             0.00            48.74            48.74             0.00
     1111             0.00            48.74            48.74             0.00
     1112             0.00            48.74            48.74             0.00
     1113             0.00            48.74            48.74             0.00
     1114             0.00            48.74            48.74             0.00
     1115             0.00            48.74            48.74             0.00
     1116             0.00            48.74            48.74             0.00
     1117             0.00            48.74            48.74             0.00
     1118             0.00            48.74            48.74             0.00
     1119             0.00            48.74            48.74             0.00
     1120             0.00            48.74            48.74             0.00
     1121             0.00            48.74            48.74             0.00
     1122             0.00            48.74            48.74             0.00
     1123             0.00            48.74            48.74             0.00
     1124             0.00            48.74            48.74             0.00
     1125             0.00            48.74            48.74             0.00
     1126             0.00            48.74            48.74             0.00
     1127             0.00            48.74            48.74             0.00
     1128             0.00            48.74            48.74             0.00
     1129             0.00            48.74            48.74             0.00
     1130             0.00            48.74            48.74             0.00
     1131             0.00            48.74            48.74             0.00
     1132             0.00            48.74            48.74             0.00
     1133             0.00            48.74            48.74             0.00
     1134             0.00            48.74            48.74             0.00
     1135             0.00            48.74            48.74             0.00
     1136             0.00            48.74            48.74             0.00
     1137             0.00            48.74            48.74             0.00
     1138             0.00            48.74            48.74             0.00
     1139             0.00            48.74            48.74             0.00
     1140             0.00            48.74            48.74             0.00
     1141             0.00            48.74            48.74             0.00
     1142             0.00            48.74            48.74             0.00
     1143             0.00            48.74            48.74             0.00
     1144             0.00            48.74            48.74             0.00
     1145             0.00            48.74            48.74             0.00
     1146             0.00            48.74            48.74             0.00
     1147             0.00            48.74            48.74             0.00
     1148             0.00            48.74            48.74             0.00
     1149             0.00            48.74            48.74             0.00
     1150             0.00            48.74            48.74             0.00
     1151             0.00            48.74            48.74             0.00
     1152             0.00            48.74            48.74             0.00
     1153             0.00            48.74            48.74             0.00
     1154             0.00            48.74            48.74             0.00
     1155             0.00            48.74            48.74             0.00
     1156             0.00            48.74            48.74             0.00
     1157             0.00            48.74            48.74             0.00
     1158             0.00            48.74            48.74             0.00
     1159             0.00            48.74            48.74             0.00
     1160             0.00            48.74            48.74             0.00
     1161             0.00            48.74            48.74             0.00
     1162             0.00            48.74            48.74             0.00
     1163             0.00            48.74            48.74             0.00
     1164             0.00            48.74            48.74             0.00
     1165             0.00            48.74            48.74             0.00
     1166             0.00            48.74            48.74             0.00
     1167             0.00            48.74            48.74             0.00
     1168             0.00            48.74            48.74             0.00
     1169             0.00            48.74            48.74             0.00
     1170             0.00            48.74            48.74             0.00
     1171             0.00            48.74            48.74             0.00
     1172             0.00            48.74            48.74             0.00
     1173             0.00            48.74            48.74             0.00
     1174             0.00            48.74            48.74             0.00
     1175             0.00            48.74            48.74             0.00
     1176             0.00            48.74            48.74             0.00
     1177             0.00            48.74            48.74             0.00
     1178             0.00            48.74            48.74             0.00
     1179             0.00            48.74            48.74             0.00
     1180             0.00            48.74            48.74             0.00
     1181             0.00            48.74            48.74             0.00
     1182             0.00            48.74            48.74             0.00
     1183             0.00            48.74            48.74             0.00
     1184             0.00            48.74            48.74             0.00
     1185             0.00            48.74            48.74             0.00
     1186             0.00            48.74            48.74             0.00
     1187             0.00            48.74            48.74             0.00
     1188             0.00            48.74            48.74             0.00
     1189             0.00            48.74            48.74             0.00
     1190             0.00            48.74            48.74             0.00
     1191             0.00            48.74            48.74             0.00
     1192             0.00            48.74            48.74             0.00
     1193             0.00            48.74            48.74             0.00
     1194             0.00            48.74            48.74             0.00
     1195             0.00            48.74            48.74             0.00
     1196             0.00            48.74            48.74             0.00
     1197             0.00            48.74            48.74             0.00
     1198             0.00            48.74            48.74             0.00
     1199             0.00            48.74            48.74             0.00

    TOTAL           265.15         58483.24         58748.39            24.37

<<<<<<<<<<<<<<<<<<<<<<<<<<<<<<<<<<<<<<<<<<<<<<<<<<<<<<<<<<<<<<<<<<<<<<<<<<<<<<<<

 ROMS/TOMS - Output NetCDF summary for Grid 01:
             number of time records written in HISTORY file = 15
             number of time records written in AVERAGE file = 15

 Analytical header files used:

     ROMS/Functionals/ana_btflux.h

 ROMS/TOMS: DONE... Tuesday - June 21, 2022 - 11:13:01 AM
