ROMS/TOMS Framework: Feb 25, 2022
===================

Copyright (c) 2002-2022 The ROMS/TOMS Group
  Licensed under a MIT/X style license
  See License_ROMS.txt

svn: $HeadURL: https://www.myroms.org/svn/src/tags/roms-4.0/ROMS/Version $
svn: $LastChangedBy: arango $
svn: $LastChangedRevision: 1108 $
svn: $LastChangedDate: 2022-02-26 04:23:31 +0800 (Sat, 26 Feb 2022) $

